<?xml version="1.0" encoding="UTF-8"?>

<!-- generated on Thu Feb 13 13:30:54 2020 by Eclipse SUMO duarouter Version 1.1.0
<configuration xmlns:xsi="http://www.w3.org/2001/XMLSchema-instance" xsi:noNamespaceSchemaLocation="http://sumo.dlr.de/xsd/duarouterConfiguration.xsd">

    <input>
        <net-file value="/apps/artery/scenarios/artery/cross.net.xml"/>
        <route-files value="trips.trips.xml"/>
    </input>

    <output>
        <output-file value="/apps/artery/scenarios/artery/cross.rou.xml"/>
        <alternatives-output value="/apps/artery/scenarios/artery/cross.rou.alt.xml"/>
    </output>

    <time>
        <begin value="0"/>
        <end value="50.0"/>
    </time>

    <report>
        <no-warnings value="true"/>
        <ignore-errors value="true"/>
        <no-step-log value="true"/>
    </report>

</configuration>
-->

<routes xmlns:xsi="http://www.w3.org/2001/XMLSchema-instance" xsi:noNamespaceSchemaLocation="http://sumo.dlr.de/xsd/routes_file.xsd">
    <vehicle id="0" depart="0.00">
        <route edges="gneE20"/>
    </vehicle>
    <vehicle id="1" depart="1.00">
        <route edges="gneE19"/>
    </vehicle>
    <vehicle id="3" depart="3.00">
        <route edges="-gneE20 gneE21 -gneE15 gneE17 gneE19"/>
    </vehicle>
    <vehicle id="4" depart="4.00">
        <route edges="gneE21 -gneE15 gneE17 gneE19"/>
    </vehicle>
    <vehicle id="5" depart="5.00">
        <route edges="-gneE20 gneE21 -gneE15 gneE17"/>
    </vehicle>
    <vehicle id="6" depart="6.00">
        <route edges="-gneE18 gneE17 gneE19"/>
    </vehicle>
    <vehicle id="8" depart="8.00">
        <route edges="gneE14 gneE17 gneE19 -gneE20 gneE21 -gneE15"/>
    </vehicle>
    <vehicle id="10" depart="10.00">
        <route edges="-gneE20 gneE21 -gneE15 gneE17"/>
    </vehicle>
    <vehicle id="11" depart="11.00">
        <route edges="gneE14 gneE17 gneE19 -gneE20 gneE21"/>
    </vehicle>
    <vehicle id="12" depart="12.00">
        <route edges="gneE21 -gneE15 gneE18"/>
    </vehicle>
    <vehicle id="13" depart="13.00">
        <route edges="gneE21 -gneE15 gneE17 gneE19 -gneE20"/>
    </vehicle>
    <vehicle id="15" depart="15.00">
        <route edges="-gneE19 -gneE17 gneE15 -gneE21"/>
    </vehicle>
    <vehicle id="16" depart="16.00">
        <route edges="gneE14 gneE17 gneE19 -gneE20 gneE21"/>
    </vehicle>
    <vehicle id="19" depart="19.00">
        <route edges="-gneE18 gneE17 gneE19"/>
    </vehicle>
    <vehicle id="24" depart="24.00">
        <route edges="-gneE17 gneE15 -gneE21"/>
    </vehicle>
    <vehicle id="26" depart="26.00">
        <route edges="gneE14 gneE15 -gneE21"/>
    </vehicle>
    <vehicle id="28" depart="28.00">
        <route edges="-gneE17 gneE15 -gneE21 gneE20 -gneE19"/>
    </vehicle>
    <vehicle id="29" depart="29.00">
        <route edges="-gneE18 gneE17 gneE19 -gneE20 gneE21"/>
    </vehicle>
    <vehicle id="30" depart="30.00">
        <route edges="gneE21 -gneE15 gneE18"/>
    </vehicle>
    <vehicle id="31" depart="31.00">
        <route edges="gneE20 -gneE19"/>
    </vehicle>
    <vehicle id="32" depart="32.00">
        <route edges="gneE14 gneE17 gneE19 -gneE20 gneE21"/>
    </vehicle>
    <vehicle id="33" depart="33.00">
        <route edges="gneE14 gneE15 -gneE21"/>
    </vehicle>
    <vehicle id="34" depart="34.00">
        <route edges="gneE21 -gneE15 gneE18"/>
    </vehicle>
    <vehicle id="37" depart="37.00">
        <route edges="-gneE21 gneE20 -gneE19 -gneE17 -gneE14"/>
    </vehicle>
    <vehicle id="39" depart="39.00">
        <route edges="-gneE18 gneE15 -gneE21 gneE20"/>
    </vehicle>
    <vehicle id="41" depart="41.00">
        <route edges="-gneE21 gneE20 -gneE19 -gneE17 gneE18"/>
    </vehicle>
    <vehicle id="42" depart="42.00">
        <route edges="gneE15 -gneE21 gneE20 -gneE19 -gneE17"/>
    </vehicle>
    <vehicle id="43" depart="43.00">
        <route edges="-gneE15 gneE18"/>
    </vehicle>
    <vehicle id="44" depart="44.00">
        <route edges="-gneE18 gneE15 -gneE21"/>
    </vehicle>
    <vehicle id="45" depart="45.00">
        <route edges="gneE14 gneE17 gneE19 -gneE20 gneE21"/>
    </vehicle>
    <vehicle id="49" depart="49.00">
        <route edges="gneE14 gneE17 gneE19"/>
    </vehicle>
</routes>
