[General]
network = artery.inet.World
sim-time-limit = 250s	

**.modulation = "BPSK"

*.traci.core.version = -1
*.traci.launcher.typename = "PosixLauncher"
*.traci.launcher.sumocfg = "congestion.sumocfg"

*.node[*].middleware.updateInterval = 0.1s
*.node[*].middleware.datetime = "2020-02-18 12:00:00"
*.node[*].middleware.services = xmldoc("services.xml")

*.node[*].posX.result-recording-modes = vector
*.node[*].posY.result-recording-modes = vector
**.speed.result-recording-modes = vector 

**.minSNIR.result-recording-modes = vector 
**.transmissionDuration.result-recording-modes = stats, vector 
**.transmissionLength.result-recording-modes = stats, vector, sum, count
**.transmissionBitrate.result-recording-modes = stats, vector , histogram 

*.node[*].middleware.mcoPolicy = xml("<mco default=\"CCH\"> <application id=\"0\" channel=\"180\" /></mco>")

[Config sumo-gui]
*.traci.launcher.sumo = "sumo-gui"



