<?xml version="1.0" encoding="utf-8"?>
<configuration>
    <input>
        <net-file value="highway-test.net.xml"/>
        <route-files value="highway-test.rou.xml"/>
	<additional-files value="highway-test.add.xml"/>
    </input>
    <time>
        <begin value="0"/>
        <end value="10000"/>
        <step-length value="0.1"/>
    </time>
    <processing>
    	<collision.action value="none"/>
    	<time-to-teleport value="-1"/>
    </processing>
</configuration>
