<?xml version="1.0" encoding="UTF-8"?>

<!-- generated on lun. 20 avril 2020 14:06:43 CEST by Eclipse SUMO netedit Version v1_5_0+0183-292c3d1261
<configuration xmlns:xsi="http://www.w3.org/2001/XMLSchema-instance" xsi:noNamespaceSchemaLocation="http://sumo.dlr.de/xsd/netconvertConfiguration.xsd">

    <input>
        <sumo-net-file value="/home/yacheur/apps/artery/scenarios/highway-test/highway-test.net.xml"/>
    </input>

    <output>
        <output-file value="/home/yacheur/apps/artery/scenarios/highway-test/highway-test.net.xml"/>
    </output>

    <processing>
        <geometry.min-radius.fix.railways value="false"/>
        <geometry.max-grade.fix value="false"/>
        <offset.disable-normalization value="true"/>
        <lefthand value="false"/>
    </processing>

    <junctions>
        <no-turnarounds value="true"/>
        <junctions.corner-detail value="5"/>
        <junctions.limit-turn-speed value="5.5"/>
        <rectangular-lane-cut value="false"/>
    </junctions>

    <pedestrian>
        <walkingareas value="false"/>
    </pedestrian>

    <netedit>
        <additional-files value="/home/yacheur/apps/artery/scenarios/highway-test/highway-test.add.xml"/>
        <route-files value="/home/yacheur/apps/artery/scenarios/highway-test/highway-test.rou.xml"/>
    </netedit>

    <report>
        <aggregate-warnings value="5"/>
    </report>

</configuration>
-->

<routes xmlns:xsi="http://www.w3.org/2001/XMLSchema-instance" xsi:noNamespaceSchemaLocation="http://sumo.dlr.de/xsd/routes_file.xsd">
    <vType id="car0" accel="0.8" decel="4.5" sigma="0" length="5" maxSpeed="70" tau="0.2" minGap="0.5"/>
    <route edges="0to1 1to2 2to3 3to4 4to5 5to6 6to7 7to0" color="yellow" id="route_0"/>
    <vehicle id="streamingCar" type="car0" depart="0.00" color="blue" route="route_0"/>
    <flow id="flow_0" type="car0" begin="0.00" from="0to1" to="7to0" end="3600.00" number="1800"/>
</routes>
