<?xml version="1.0" encoding="UTF-8"?>

<!-- generated on dim. 24 mai 2020 01:25:32 CEST by Eclipse SUMO netedit Version v1_5_0+0183-292c3d1261
<configuration xmlns:xsi="http://www.w3.org/2001/XMLSchema-instance" xsi:noNamespaceSchemaLocation="http://sumo.dlr.de/xsd/netconvertConfiguration.xsd">

    <input>
        <sumo-net-file value="/home/yacheur/apps/artery/scenarios/ieee-grid-streaming/grid_streaming.net.xml"/>
    </input>

    <output>
        <output-file value="/home/yacheur/apps/artery/scenarios/ieee-grid-streaming/grid_streaming.net.xml"/>
    </output>

    <processing>
        <geometry.min-radius.fix.railways value="false"/>
        <geometry.max-grade.fix value="false"/>
        <offset.disable-normalization value="true"/>
        <lefthand value="false"/>
    </processing>

    <junctions>
        <no-turnarounds value="true"/>
        <junctions.corner-detail value="5"/>
        <junctions.limit-turn-speed value="5.5"/>
        <rectangular-lane-cut value="false"/>
    </junctions>

    <pedestrian>
        <walkingareas value="false"/>
    </pedestrian>

    <netedit>
        <route-files value="/home/yacheur/apps/artery/scenarios/ieee-grid-streaming/grid_streaming.rou.xml"/>
    </netedit>

    <report>
        <aggregate-warnings value="5"/>
    </report>

</configuration>
-->

<routes xmlns:xsi="http://www.w3.org/2001/XMLSchema-instance" xsi:noNamespaceSchemaLocation="http://sumo.dlr.de/xsd/routes_file.xsd">
   <vType id="car" accel="0.8" decel="4.5" sigma="0" length="5" maxSpeed="10" tau="0.2" minGap="0.5"/>
    <flow id="flow_0" type="car" begin="0.00" from="E4D4" to="B4A4" via="D4C4 C4B4" number="2" period="2.00"/>
    <flow id="flow_1" type="car" begin="0.00" from="A3B3" to="D3E3" via="B3C3 C3D3" number="2" period="2.00"/>
</routes>
